
**** 05/16/24 11:40:35 ***** PSpice 23.1.0 (17 April 2024) **** ID# 0 ********

 ** Profile: "SCHEMATIC1-CargaRL"  [ C:\Users\lucho\OneDrive\Escritorio\ElectronicaPotencia-main\TP3\Simulacion\tp3_ep-pspicefiles\sc


 ****     CIRCUIT DESCRIPTION


******************************************************************************




** Creating circuit file "CargaRL.cir" 
** WARNING: THIS AUTOMATICALLY GENERATED FILE MAY BE OVERWRITTEN BY SUBSEQUENT SIMULATIONS

*Libraries: 
* Profile Libraries :
* Local Libraries :
* From [PSPICE NETLIST] section of C:\Users\lucho\cdssetup\OrCAD_PSpice\23.1.0\PSpice.ini file:
.lib "nom.lib" 

*Analysis directives: 
.TRAN  0 80ms 40ms 
.OPTIONS ADVCONV
.PROBE64 V(alias(*)) I(alias(*)) W(alias(*)) D(alias(*)) NOISE(alias(*)) 
.INC "..\SCHEMATIC1.net" 



**** INCLUDING SCHEMATIC1.net ****
* source TP3_EP
X_X1         N06786 N07787 N00779 MCR5167
X_X2         N00779 N08106 N00833 MCR5167
X_X3         N00793 N08261 N00833 MCR5167
X_X4         N06786 N07895 N00793 MCR5167
X_X5         N06786 N08438 N00772 MCR5167
X_X6         N00772 N08587 N00833 MCR5167
I_I4         N00779 N07787 DC 0Adc AC 0Aac
+PULSE 0 1 {tn4+td} 1u 1u 500u {1/frec}
I_I1         N00833 N08106 DC 0Adc AC 0Aac
+PULSE 0 1 {tn1+td} 1u 1u 500u {1/frec}
I_I2         N00833 N08261 DC 0Adc AC 0Aac
+PULSE 0 1 {tn2+td} 1u 1u 500u {1/frec}
I_I5         N00793 N07895 DC 0Adc AC 0Aac
+PULSE 0 1 {tn5+td} 1u 1u 500u {1/frec}
I_I6         N00772 N08438 DC 0Adc AC 0Aac
+PULSE 0 1 {tn6+td} 1u 1u 500u {1/frec}
V_V_R         N00779 0 DC 0 AC 0
+SIN 0 {vmax} {frec} 0 0 0
V_V_T         N00793 0 DC 0 AC 0
+SIN 0 {vmax} {frec} 0 0 120
V_V_S         N00772 0 DC 0 AC 0
+SIN 0 {vmax} {frec} 0 0 240
I_I3         N00833 N08587 DC 0Adc AC 0Aac
+PULSE 0 1 {tn3+td} 1u 1u 500u {1/frec}
R_RL         N09886 N00833  1  
L_L1         N09886 N06786  10mH  TC=0,0 
.PARAM  tn6=18.33m tn1=1.66m tn3=8.33m tn2=15m alpha=45 frec=50 td=
+ {alpha*20m/360} vmax=311 tn5=5m tn4=11.66m

**** RESUMING CargaRL.cir ****
.END

**** 05/16/24 11:40:35 ***** PSpice 23.1.0 (17 April 2024) **** ID# 0 ********

 ** Profile: "SCHEMATIC1-CargaRL"  [ C:\Users\lucho\OneDrive\Escritorio\ElectronicaPotencia-main\TP3\Simulacion\tp3_ep-pspicefiles\sc


 ****     Diode MODEL PARAMETERS


******************************************************************************




               X_X1.X1.Dgk     X_X1.X1.Dseries X_X1.X1.Delay   X_X1.X1.Dkarev  
          IS  100.000000E-18   10.000000E-15    1.000000E-12  100.000000E-12 
          RS    5                                .01             .01         
         CJO   50.000000E-12                    5.000000E-12    5.000000E-12 


               X_X1.X1.Dakfwd  X_X1.X1.Dbreak  X_X2.X1.Dgk     X_X2.X1.Dseries 
          IS   40.000000E-12   10.000000E-15  100.000000E-18   10.000000E-15 
          BV                  660                                            
         IBV                  100.000000E-09                                 
          RS                     .5             5                            
         CJO    5.000000E-12    5.000000E-12   50.000000E-12                 


               X_X2.X1.Delay   X_X2.X1.Dkarev  X_X2.X1.Dakfwd  X_X2.X1.Dbreak  
          IS    1.000000E-12  100.000000E-12   40.000000E-12   10.000000E-15 
          BV                                                  660            
         IBV                                                  100.000000E-09 
          RS     .01             .01                             .5          
         CJO    5.000000E-12    5.000000E-12    5.000000E-12    5.000000E-12 


               X_X3.X1.Dgk     X_X3.X1.Dseries X_X3.X1.Delay   X_X3.X1.Dkarev  
          IS  100.000000E-18   10.000000E-15    1.000000E-12  100.000000E-12 
          RS    5                                .01             .01         
         CJO   50.000000E-12                    5.000000E-12    5.000000E-12 


               X_X3.X1.Dakfwd  X_X3.X1.Dbreak  X_X4.X1.Dgk     X_X4.X1.Dseries 
          IS   40.000000E-12   10.000000E-15  100.000000E-18   10.000000E-15 
          BV                  660                                            
         IBV                  100.000000E-09                                 
          RS                     .5             5                            
         CJO    5.000000E-12    5.000000E-12   50.000000E-12                 


               X_X4.X1.Delay   X_X4.X1.Dkarev  X_X4.X1.Dakfwd  X_X4.X1.Dbreak  
          IS    1.000000E-12  100.000000E-12   40.000000E-12   10.000000E-15 
          BV                                                  660            
         IBV                                                  100.000000E-09 
          RS     .01             .01                             .5          
         CJO    5.000000E-12    5.000000E-12    5.000000E-12    5.000000E-12 


               X_X5.X1.Dgk     X_X5.X1.Dseries X_X5.X1.Delay   X_X5.X1.Dkarev  
          IS  100.000000E-18   10.000000E-15    1.000000E-12  100.000000E-12 
          RS    5                                .01             .01         
         CJO   50.000000E-12                    5.000000E-12    5.000000E-12 


               X_X5.X1.Dakfwd  X_X5.X1.Dbreak  X_X6.X1.Dgk     X_X6.X1.Dseries 
          IS   40.000000E-12   10.000000E-15  100.000000E-18   10.000000E-15 
          BV                  660                                            
         IBV                  100.000000E-09                                 
          RS                     .5             5                            
         CJO    5.000000E-12    5.000000E-12   50.000000E-12                 


               X_X6.X1.Delay   X_X6.X1.Dkarev  X_X6.X1.Dakfwd  X_X6.X1.Dbreak  
          IS    1.000000E-12  100.000000E-12   40.000000E-12   10.000000E-15 
          BV                                                  660            
         IBV                                                  100.000000E-09 
          RS     .01             .01                             .5          
         CJO    5.000000E-12    5.000000E-12    5.000000E-12    5.000000E-12 


**** 05/16/24 11:40:35 ***** PSpice 23.1.0 (17 April 2024) **** ID# 0 ********

 ** Profile: "SCHEMATIC1-CargaRL"  [ C:\Users\lucho\OneDrive\Escritorio\ElectronicaPotencia-main\TP3\Simulacion\tp3_ep-pspicefiles\sc


 ****     Voltage Controlled Switch MODEL PARAMETERS


******************************************************************************




               X_X1.X1.Vswitch X_X2.X1.Vswitch X_X3.X1.Vswitch X_X4.X1.Vswitch 
         RON     .04             .04             .04             .04         
        ROFF    4.800000E+06    4.800000E+06    4.800000E+06    4.800000E+06 
         VON    5               5               5               5            
        VOFF    1.5             1.5             1.5             1.5          


               X_X5.X1.Vswitch X_X6.X1.Vswitch 
         RON     .04             .04         
        ROFF    4.800000E+06    4.800000E+06 
         VON    5               5            
        VOFF    1.5             1.5          


**** 05/16/24 11:40:35 ***** PSpice 23.1.0 (17 April 2024) **** ID# 0 ********

 ** Profile: "SCHEMATIC1-CargaRL"  [ C:\Users\lucho\OneDrive\Escritorio\ElectronicaPotencia-main\TP3\Simulacion\tp3_ep-pspicefiles\sc


 ****     INITIAL TRANSIENT SOLUTION       TEMPERATURE =   27.000 DEG C


******************************************************************************



 NODE   VOLTAGE     NODE   VOLTAGE     NODE   VOLTAGE     NODE   VOLTAGE


(N00772) -269.3300 (N00779)    0.0000 (N00793)  269.3300 (N00833)-2.468E-09     

(N06786) 2.469E-09 (N07787) 46.12E-30 (N07895)  269.3300 (N08106)-2.468E-09     

(N08261)-2.468E-09 (N08438) -269.3300 (N08587)-2.468E-09 (N09886) 2.469E-09     

(X_X1.X1.Itot) 3.724E-18              (X_X1.X1.prod) 9.193E-27                  

(X_X2.X1.Itot) 3.723E-18              (X_X2.X1.prod) 9.187E-27                  

(X_X3.X1.Itot) 56.03E-06              (X_X3.X1.prod)     .0151                  

(X_X4.X1.Itot)    0.0000              (X_X4.X1.prod)    0.0000                  

(X_X5.X1.Itot) 56.03E-06              (X_X5.X1.prod)     .0151                  

(X_X6.X1.Itot)    0.0000              (X_X6.X1.prod)    0.0000                  

(X_X1.X1.dlay1) 15.48E-21             (X_X1.X1.dlay2)-109.1E-21                 

(X_X1.X1.dvdt0) 2.469E-09             (X_X1.X1.dvdt1)    0.0000                 

(X_X1.X1.dvdt2)    0.0000             (X_X1.X1.gate1) 46.12E-30                 

(X_X1.X1.gate2)    0.0000             (X_X1.X1.gate4)    0.0000                 

(X_X2.X1.dlay1) 15.48E-21             (X_X2.X1.dlay2)-109.1E-21                 

(X_X2.X1.dvdt0) 2.468E-09             (X_X2.X1.dvdt1)-2.468E-09                 

(X_X2.X1.dvdt2)-2.468E-09             (X_X2.X1.gate1)-2.468E-09                 

(X_X2.X1.gate2)-2.468E-09             (X_X2.X1.gate4)    0.0000                 

(X_X3.X1.dlay1) 15.48E-21             (X_X3.X1.dlay2)-109.1E-21                 

(X_X3.X1.dvdt0)  269.3300             (X_X3.X1.dvdt1)-2.468E-09                 

(X_X3.X1.dvdt2)-2.468E-09             (X_X3.X1.gate1)-2.468E-09                 

(X_X3.X1.gate2)-2.468E-09             (X_X3.X1.gate4)    0.0000                 

(X_X4.X1.dlay1) 15.48E-21             (X_X4.X1.dlay2)-109.1E-21                 

(X_X4.X1.dvdt0)    0.0000             (X_X4.X1.dvdt1)  269.3300                 

(X_X4.X1.dvdt2)  269.3300             (X_X4.X1.gate1)  269.3300                 

(X_X4.X1.gate2)  269.3300             (X_X4.X1.gate4)    0.0000                 

(X_X5.X1.dlay1) 15.48E-21             (X_X5.X1.dlay2)-109.1E-21                 

(X_X5.X1.dvdt0)  269.3300             (X_X5.X1.dvdt1) -269.3300                 

(X_X5.X1.dvdt2) -269.3300             (X_X5.X1.gate1) -269.3300                 

(X_X5.X1.gate2) -269.3300             (X_X5.X1.gate4)    0.0000                 

(X_X6.X1.dlay1) 15.48E-21             (X_X6.X1.dlay2)-109.1E-21                 

(X_X6.X1.dvdt0)    0.0000             (X_X6.X1.dvdt1)-2.468E-09                 

(X_X6.X1.dvdt2)-2.468E-09             (X_X6.X1.gate1)-2.468E-09                 

(X_X6.X1.gate2)-2.468E-09             (X_X6.X1.gate4)    0.0000                 

(X_X1.X1.anode0) 2.406E-09            (X_X1.X1.anode2)    0.0000                

(X_X1.X1.break1) 1.234E-09            (X_X1.X1.contot)    0.0000                

(X_X2.X1.anode0)-62.52E-12            (X_X2.X1.anode2)-2.468E-09                

(X_X2.X1.break1)-1.234E-09            (X_X2.X1.contot)    0.0000                

(X_X3.X1.anode0)     .3660            (X_X3.X1.anode2)-2.468E-09                

(X_X3.X1.break1)  269.0700            (X_X3.X1.contot)    0.0000                

(X_X4.X1.anode0)  268.9900            (X_X4.X1.anode2)  269.3300                

(X_X4.X1.break1)  269.0700            (X_X4.X1.contot)    0.0000                

(X_X5.X1.anode0) -268.9700            (X_X5.X1.anode2) -269.3300                

(X_X5.X1.break1)    -.2638            (X_X5.X1.contot)    0.0000                

(X_X6.X1.anode0)    -.3424            (X_X6.X1.anode2)-2.468E-09                

(X_X6.X1.break1)    -.2638            (X_X6.X1.contot)    0.0000                

(X_X1.X1.condvdt)    0.0000           (X_X1.X1.congate)    0.0000               

(X_X1.X1.conmain)    0.0000           (X_X1.X1.control) 43.09E-15               

(X_X2.X1.condvdt)    0.0000           (X_X2.X1.congate)    0.0000               

(X_X2.X1.conmain)    0.0000           (X_X2.X1.control) 43.09E-15               

(X_X3.X1.condvdt)    0.0000           (X_X3.X1.congate)    0.0000               

(X_X3.X1.conmain)    0.0000           (X_X3.X1.control) 43.09E-15               

(X_X4.X1.condvdt)    0.0000           (X_X4.X1.congate)    0.0000               

(X_X4.X1.conmain)    0.0000           (X_X4.X1.control) 43.09E-15               

(X_X5.X1.condvdt)    0.0000           (X_X5.X1.congate)    0.0000               

(X_X5.X1.conmain)    0.0000           (X_X5.X1.control) 43.09E-15               

(X_X6.X1.condvdt)    0.0000           (X_X6.X1.congate)    0.0000               

(X_X6.X1.conmain)    0.0000           (X_X6.X1.control) 43.09E-15           




    VOLTAGE SOURCE CURRENTS
    NAME         CURRENT

    V_V_R        3.720E-21
    V_V_T       -1.121E-04
    V_V_S        1.121E-04
    X_X1.X1.VIak   3.724E-18
    X_X1.X1.VdVdt   0.000E+00
    X_X1.X1.VIgf   0.000E+00
    X_X2.X1.VIak   3.723E-18
    X_X2.X1.VdVdt   1.084E-19
    X_X2.X1.VIgf   7.706E-26
    X_X3.X1.VIak   5.603E-05
    X_X3.X1.VdVdt   0.000E+00
    X_X3.X1.VIgf  -8.791E-26
    X_X4.X1.VIak  -4.034E-11
    X_X4.X1.VdVdt   0.000E+00
    X_X4.X1.VIgf   1.776E-15
    X_X5.X1.VIak   5.603E-05
    X_X5.X1.VdVdt   0.000E+00
    X_X5.X1.VIgf   3.553E-15
    X_X6.X1.VIak  -4.034E-11
    X_X6.X1.VdVdt   0.000E+00
    X_X6.X1.VIgf   7.706E-26

    TOTAL POWER DISSIPATION   6.04E-02  WATTS

Reducing minimum delta to make the circuit converge.
Reducing minimum delta to make the circuit converge.
Reducing minimum delta to make the circuit converge.
Reducing minimum delta to make the circuit converge.
Reducing minimum delta to make the circuit converge.

ERROR(ORPSIM-15138): Convergence problem in Transient Analysis at Time =  .018.
         Time step =  917.0E-21, minimum allowable step size =  1.000E-18

  These supply currents failed to converge:

    I(X_X1.X1.Emon)           =    7.451uA  \    6.962uA
    I(X_X4.X1.Emon)           =    2.384uA  \    2.527uA
    I(X_X5.X1.Emon)           =   -9.298uA  \   -9.439uA
    I(X_X1.X1.VIgf)           =         0A  \    58.21pA
    I(X_X2.X1.VIak)           =  -111.76nA  \  -123.07nA
    I(X_X2.X1.VIgf)           =    42.56nA  \   -5.298pA
    I(X_X4.X1.VIak)           =    29.80nA  \   -6.956nA
    I(X_X5.X1.VIak)           =    44.70nA  \    48.72nA
    I(X_X5.X1.VIgf)           =    49.72nA  \    11.01pA
    I(X_X6.X1.VIgf)           =   -33.04nA  \    13.18pA

  These devices failed to converge:
    X_X1.X1.Dton X_X1.X1.Dbreak X_X2.X1.Dak1 X_X2.X1.Dton X_X2.X1.Dtoff 
    X_X2.X1.Dbreak X_X4.X1.Dak1 X_X4.X1.Dton X_X4.X1.Dtoff X_X4.X1.Dbreak 
    X_X5.X1.Dak1 X_X5.X1.Dton X_X5.X1.Dtoff X_X5.X1.Dbreak X_X6.X1.Dton 
    X_X6.X1.Dbreak 



  Last node voltages tried were:

 NODE   VOLTAGE     NODE   VOLTAGE     NODE   VOLTAGE     NODE   VOLTAGE


(N00772)  -80.5910 (N00779) -219.8400 (N00793)  300.4300 (N00833)  -81.1700     

(N06786) -209.1900 (N07787) -219.8400 (N07895)  300.4300 (N08106)  -81.1700     

(N08261)  -55.3750 (N08438)  -80.5910 (N08587)  -81.1700 (N09886) -328.3300     

(X_X1.X1.Itot)  247.1600              (X_X1.X1.prod)   10.0000                  

(X_X2.X1.Itot)    0.0000              (X_X2.X1.prod)    0.0000                  

(X_X3.X1.Itot)  247.0200              (X_X3.X1.prod)   10.0000                  

(X_X4.X1.Itot)    0.0000              (X_X4.X1.prod)    0.0000                  

(X_X5.X1.Itot) 44.70E-09              (X_X5.X1.prod)    0.0000                  

(X_X6.X1.Itot)     .1622              (X_X6.X1.prod)     .0940                  

(X_X1.X1.dlay1)   10.0000             (X_X1.X1.dlay2)   10.0000                 

(X_X1.X1.dvdt0)   10.6480             (X_X1.X1.dvdt1) -219.8500                 

(X_X1.X1.dvdt2) -219.8400             (X_X1.X1.gate1) -219.8400                 

(X_X1.X1.gate2) -219.8400             (X_X1.X1.gate4)    0.0000                 

(X_X2.X1.dlay1)-13.59E-09             (X_X2.X1.dlay2) 47.84E-06                 

(X_X2.X1.dvdt0)    0.0000             (X_X2.X1.dvdt1)  -86.5340                 

(X_X2.X1.dvdt2)  -81.1700             (X_X2.X1.gate1)  -81.1700                 

(X_X2.X1.gate2)  -81.1700             (X_X2.X1.gate4)    0.0000                 

(X_X3.X1.dlay1)    4.5903             (X_X3.X1.dlay2)   10.0330                 

(X_X3.X1.dvdt0)  381.6000             (X_X3.X1.dvdt1)  -91.8950                 

(X_X3.X1.dvdt2)  -81.1700             (X_X3.X1.gate1)  -76.6250                 

(X_X3.X1.gate2)  -81.1700             (X_X3.X1.gate4)   10.0000                 

(X_X4.X1.dlay1)-23.89E-09             (X_X4.X1.dlay2) 87.92E-06                 

(X_X4.X1.dvdt0)    0.0000             (X_X4.X1.dvdt1)  300.4300                 

(X_X4.X1.dvdt2)  300.4300             (X_X4.X1.gate1)  300.4300                 

(X_X4.X1.gate2)  300.4300             (X_X4.X1.gate4)    0.0000                 

(X_X5.X1.dlay1)-7.800E-09             (X_X5.X1.dlay2) 31.85E-06                 

(X_X5.X1.dvdt0)    0.0000             (X_X5.X1.dvdt1)  -80.5820                 

(X_X5.X1.dvdt2)  -80.5910             (X_X5.X1.gate1)  -80.5910                 

(X_X5.X1.gate2)  -80.5910             (X_X5.X1.gate4)    0.0000                 

(X_X6.X1.dlay1)   10.0000             (X_X6.X1.dlay2)   10.0000                 

(X_X6.X1.dvdt0)     .5794             (X_X6.X1.dvdt1)  -91.9070                 

(X_X6.X1.dvdt2)  -81.1700             (X_X6.X1.gate1)  -81.1700                 

(X_X6.X1.gate2)  -81.1700             (X_X6.X1.gate4)    0.0000                 

(X_X1.X1.anode0) -219.0800            (X_X1.X1.anode2) -219.8400                

(X_X1.X1.break1)  264.7200            (X_X1.X1.contot)   10.0000                

(X_X2.X1.anode0)  -81.4950            (X_X2.X1.anode2)  -81.1700                

(X_X2.X1.break1)  303.7900            (X_X2.X1.contot)    0.0000                

(X_X3.X1.anode0)  -80.4090            (X_X3.X1.anode2)  -81.1700                

(X_X3.X1.break1)  797.9100            (X_X3.X1.contot)   10.0000                

(X_X4.X1.anode0)  300.0700            (X_X4.X1.anode2)  300.4300                

(X_X4.X1.break1)  328.1800            (X_X4.X1.contot)    0.0000                

(X_X5.X1.anode0)  -80.9140            (X_X5.X1.anode2)  -80.5910                

(X_X5.X1.break1)  302.4000            (X_X5.X1.contot)    0.0000                

(X_X6.X1.anode0)  -80.5970            (X_X6.X1.anode2)  -81.1700                

(X_X6.X1.break1)  384.4200            (X_X6.X1.contot)   10.0000                

(X_X1.X1.condvdt)    0.0000           (X_X1.X1.congate)    0.0000               

(X_X1.X1.conmain)   10.0000           (X_X1.X1.control)    9.7490               

(X_X2.X1.condvdt)    0.0000           (X_X2.X1.congate)    0.0000               

(X_X2.X1.conmain)    0.0000           (X_X2.X1.control)     .2333               

(X_X3.X1.condvdt)    0.0000           (X_X3.X1.congate)   10.0000               

(X_X3.X1.conmain)   10.0000           (X_X3.X1.control)    4.0056               

(X_X4.X1.condvdt)    0.0000           (X_X4.X1.congate)    0.0000               

(X_X4.X1.conmain)    0.0000           (X_X4.X1.control)     .2491               

(X_X5.X1.condvdt)    0.0000           (X_X5.X1.congate)    0.0000               

(X_X5.X1.conmain)    0.0000           (X_X5.X1.control)     .2228               

(X_X6.X1.condvdt)    0.0000           (X_X6.X1.congate)    0.0000               

(X_X6.X1.conmain)   10.0000           (X_X6.X1.control)    9.7662           


**** Interrupt ****
